/*--------------------------------*- C++ -*----------------------------------*\
  =========                 |
  \\      /  F ield         | OpenFOAM: The Open Source CFD Toolbox
   \\    /   O peration     | Website:  https://openfoam.org
    \\  /    A nd           | Version:  dev
     \\/     M anipulation  |
\*---------------------------------------------------------------------------*/
FoamFile
{
    version         2;
    format          ascii;
    class           dictionary;
    location        "system";
    object          controlDict;
}
// * * * * * * * * * * * * * * * * * * * * * * * * * * * * * * * * * * * * * //

libs            ("libCLCFluidMulticomponentThermophysicalTransportModels.so");

application     foamRun;

solver          multiphaseEuler;

startFrom       latestTime;

startTime       0;

stopAt          endTime;

endTime         ${${FOAM_CASE}/caseParamsDict!simTime};

deltaT          ${${FOAM_CASE}/caseParamsDict!timeStep};

writeControl    runTime;

writeInterval   1;

purgeWrite      0;

writeFormat     binary;

writePrecision  12;

writeCompression uncompressed;

timeFormat      general;

timePrecision   8;

runTimeModifiable yes;

adjustTimeStep  no;

maxCo           0.5;

maxDeltaT       0.0001;

// DebugSwitches
// {
//     totalFlowRateAdvectiveDiffusive 1; 
// }


// ************************************************************************* //
