/*--------------------------------*- C++ -*----------------------------------*\
  =========                 |
  \\      /  F ield         | OpenFOAM: The Open Source CFD Toolbox
   \\    /   O peration     | Website:  https://openfoam.org
    \\  /    A nd           | Version:  dev
     \\/     M anipulation  |
\*---------------------------------------------------------------------------*/
FoamFile
{
    version         2;
    format          ascii;
    class           dictionary;
    location        "system";
    object          functions;
}
// * * * * * * * * * * * * * * * * * * * * * * * * * * * * * * * * * * * * * //

// It might also make sense to add NRR for all cellSets

#includeFunc moleFractions(phase=gas)
#includeFunc CourantNo
#includeFunc frequentWriteFn
// #includeFunc volIntegrateAlphaSolidsFn // Total volume of solids [m^3] - should be constant
#includeFunc volIntegrate(writeInterval=100,fields=(alpha.solids))
// #includeFunc totalMassOfSolidsFn
#includeFunc pressureProbesFn

// Heat flux through all walls
#includeFunc wallHeatFlux(phase=gas)

// Interpolate fields to be able to sample over internal faces (can be executed the same time as surface function, but just to be safe)
#includeFunc surfaceInterpolate(writeControl=none,executeControl=timeStep,executeInterval=1,field=O2.gas)
#includeFunc surfaceInterpolate(writeControl=none,executeControl=timeStep,executeInterval=1,field=CO.gas)
#includeFunc surfaceInterpolate(writeControl=none,executeControl=timeStep,executeInterval=1,field=CO2.gas)
#includeFunc surfaceInterpolate(writeControl=none,executeControl=timeStep,executeInterval=1,field=H2O.gas)
#includeFunc surfaceInterpolate(writeControl=none,executeControl=timeStep,executeInterval=1,field=H2.gas)
#includeFunc surfaceInterpolate(writeControl=none,executeControl=timeStep,executeInterval=1,field=CH4.gas)
#includeFunc surfaceInterpolate(writeControl=none,executeControl=timeStep,executeInterval=1,field=N2.gas)
#includeFunc surfaceInterpolate(writeControl=none,executeControl=timeStep,executeInterval=1,field=Ar.gas)
#includeFunc surfaceInterpolate(writeControl=none,executeControl=timeStep,executeInterval=1,field=Fe2O3.solids)
#includeFunc surfaceInterpolate(writeControl=none,executeControl=timeStep,executeInterval=1,field=FeO.solids)
#includeFunc surfaceInterpolate(writeControl=none,executeControl=timeStep,executeInterval=1,field=inerts.solids)
#includeFunc surfaceInterpolate(writeControl=none,executeControl=timeStep,executeInterval=1,field=h.gas)
#includeFunc surfaceInterpolate(writeControl=none,executeControl=timeStep,executeInterval=1,field=h.solids)

// Mass flow rates [kg/s]
#includeFunc patchFlowRate(writeInterval=100,fields=(alphaRhoPhi.gas),patch=inlet_AR)
#includeFunc patchFlowRate(writeInterval=100,fields=(alphaRhoPhi.gas),patch=inlet_FR)
#includeFunc patchFlowRate(writeInterval=100,fields=(alphaRhoPhi.gas),patch=inlet_SL)
#includeFunc patchFlowRate(writeInterval=100,fields=(alphaRhoPhi.gas),patch=inlet_DC2)
#includeFunc patchFlowRate(writeInterval=100,fields=(alphaRhoPhi.gas),patch=outlet_AR)
#includeFunc patchFlowRate(writeInterval=100,fields=(alphaRhoPhi.gas),patch=outlet_FR)
#includeFunc faceZoneFlowRate(writeInterval=100,fields=(alphaRhoPhi.solids alphaRhoPhi.gas),faceZone=controlSurface_SL_AR)
#includeFunc faceZoneFlowRate(writeInterval=100,fields=(alphaRhoPhi.solids alphaRhoPhi.gas),faceZone=controlSurface_SL_FR)
#includeFunc faceZoneFlowRate(writeInterval=100,fields=(alphaRhoPhi.solids alphaRhoPhi.gas),faceZone=controlSurface_DC_AR)
#includeFunc faceZoneFlowRate(writeInterval=100,fields=(alphaRhoPhi.solids alphaRhoPhi.gas),faceZone=controlSurface_DC_FR)

// Enthalpy fluxes [J/s]
#includeFunc patchFlowRate(writeInterval=100,fields=(alphaRhoPhi.gas),weightFields=(h.gas),patch=inlet_AR)
#includeFunc patchFlowRate(writeInterval=100,fields=(alphaRhoPhi.gas),weightFields=(h.gas),patch=inlet_FR)
#includeFunc patchFlowRate(writeInterval=100,fields=(alphaRhoPhi.gas),weightFields=(h.gas),patch=inlet_SL)
#includeFunc patchFlowRate(writeInterval=100,fields=(alphaRhoPhi.gas),weightFields=(h.gas),patch=inlet_DC2)
#includeFunc patchFlowRate(writeInterval=100,fields=(alphaRhoPhi.gas),weightFields=(h.gas),patch=outlet_AR)
#includeFunc patchFlowRate(writeInterval=100,fields=(alphaRhoPhi.gas),weightFields=(h.gas),patch=outlet_FR)
#includeFunc faceZoneFlowRate(writeInterval=100,fields=(alphaRhoPhi.gas),weightFields=(surfaceInterpolate(h.gas)),faceZone=controlSurface_SL_AR)
#includeFunc faceZoneFlowRate(writeInterval=100,fields=(alphaRhoPhi.gas),weightFields=(surfaceInterpolate(h.gas)),faceZone=controlSurface_SL_FR)
#includeFunc faceZoneFlowRate(writeInterval=100,fields=(alphaRhoPhi.gas),weightFields=(surfaceInterpolate(h.gas)),faceZone=controlSurface_DC_AR)
#includeFunc faceZoneFlowRate(writeInterval=100,fields=(alphaRhoPhi.gas),weightFields=(surfaceInterpolate(h.gas)),faceZone=controlSurface_DC_FR)
#includeFunc faceZoneFlowRate(writeInterval=100,fields=(alphaRhoPhi.solids),weightFields=(surfaceInterpolate(h.solids)),faceZone=controlSurface_SL_AR)
#includeFunc faceZoneFlowRate(writeInterval=100,fields=(alphaRhoPhi.solids),weightFields=(surfaceInterpolate(h.solids)),faceZone=controlSurface_SL_FR)
#includeFunc faceZoneFlowRate(writeInterval=100,fields=(alphaRhoPhi.solids),weightFields=(surfaceInterpolate(h.solids)),faceZone=controlSurface_DC_AR)
#includeFunc faceZoneFlowRate(writeInterval=100,fields=(alphaRhoPhi.solids),weightFields=(surfaceInterpolate(h.solids)),faceZone=controlSurface_DC_FR)

// Specie mass flow rates [kg/s]
#includeFunc surfaceSumSpecieFluxesPatchFn(patch=inlet_AR)
#includeFunc surfaceSumSpecieFluxesPatchFn(patch=inlet_FR)
#includeFunc surfaceSumSpecieFluxesPatchFn(patch=inlet_SL)
#includeFunc surfaceSumSpecieFluxesPatchFn(patch=inlet_DC2)
#includeFunc surfaceSumSpecieFluxesPatchFn(patch=outlet_AR)
#includeFunc surfaceSumSpecieFluxesPatchFn(patch=outlet_FR)
// MISTAKE IN THE APPLICATION OF THE ORIENTED SUM: FIELD MUST BE FLUX
// #includeFunc surfaceSumSpecieFluxesFaceZoneFn(faceZone=controlSurface_SL_AR)
// #includeFunc surfaceSumSpecieFluxesFaceZoneFn(faceZone=controlSurface_SL_FR)
// #includeFunc surfaceSumSpecieFluxesFaceZoneFn(faceZone=controlSurface_DC_AR)
// #includeFunc surfaceSumSpecieFluxesFaceZoneFn(faceZone=controlSurface_DC_FR)
// #includeFunc surfaceSumSolidSpecieFluxesFaceZoneFn(faceZone=controlSurface_SL_AR)
// #includeFunc surfaceSumSolidSpecieFluxesFaceZoneFn(faceZone=controlSurface_SL_FR)
// #includeFunc surfaceSumSolidSpecieFluxesFaceZoneFn(faceZone=controlSurface_DC_AR)
// #includeFunc surfaceSumSolidSpecieFluxesFaceZoneFn(faceZone=controlSurface_DC_FR)

// Total mass of solids in control volumes [m^3]
#includeFunc volIntegrate(writeInterval=100,fields=(rho.solids),weightField=alpha.solids)
#includeFunc volIntegrate(writeInterval=100,select=cellSet,cellSet=controlVolume_SL,fields=(rho.solids),weightField=alpha.solids)
#includeFunc volIntegrate(writeInterval=100,select=cellSet,cellSet=controlVolume_DC,fields=(rho.solids),weightField=alpha.solids)
#includeFunc volIntegrate(writeInterval=100,select=cellSet,cellSet=controlVolume_AR,fields=(rho.solids),weightField=alpha.solids)
#includeFunc volIntegrate(writeInterval=100,select=cellSet,cellSet=controlVolume_FR,fields=(rho.solids),weightField=alpha.solids)
#includeFunc volIntegrateSolidSpeciesFn
#includeFunc volIntegrateSolidSpeciesFn(select=cellSet,cellSet=controlVolume_SL)
#includeFunc volIntegrateSolidSpeciesFn(select=cellSet,cellSet=controlVolume_DC)
#includeFunc volIntegrateSolidSpeciesFn(select=cellSet,cellSet=controlVolume_AR)
#includeFunc volIntegrateSolidSpeciesFn(select=cellSet,cellSet=controlVolume_FR)

// Total reaction rates (solid specie consumption rates) [mol/s]
#includeFunc volIntegrate(writeInterval=100,fields=(NRR_Abad_H2))
#includeFunc volIntegrate(writeInterval=100,fields=(NRR_Abad_CO))
#includeFunc volIntegrate(writeInterval=100,fields=(NRR_Abad_CH4))
#includeFunc volIntegrate(writeInterval=100,fields=(NRR_Abad_O2))

// An estimate of solids temperature (since only energy can be averaged, not T)
#includeFunc volAverage(writeInterval=100,weightFields=(rho.solids alpha.solids),fields=(T.solids))
#includeFunc volAverage(writeInterval=100,select=cellSet,cellSet=controlVolume_SL,weightFields=(rho.solids alpha.solids),fields=(T.solids))
#includeFunc volAverage(writeInterval=100,select=cellSet,cellSet=controlVolume_DC,weightFields=(rho.solids alpha.solids),fields=(T.solids))
#includeFunc volAverage(writeInterval=100,select=cellSet,cellSet=controlVolume_AR,weightFields=(rho.solids alpha.solids),fields=(T.solids))
#includeFunc volAverage(writeInterval=100,select=cellSet,cellSet=controlVolume_FR,weightFields=(rho.solids alpha.solids),fields=(T.solids))

// -------------------------------------------------------------------------
// Field averaging (after statistically steady state is reached)
// taken from pseudoTwoDimensionalBed
// ---=== Calculation of fields for averaging ===---
// Granular pressure gradient
#includeFunc calcSolidsPressureFn(executeControl=timeStep,executeInterval=1)

// Cell phase density [kg/m^3]
#includeFunc multiply(executeControl=timeStep,executeInterval=1,writeControl=none,fields=(alpha.gas rho.gas))
#includeFunc multiply(executeControl=timeStep,executeInterval=1,writeControl=none,fields=(alpha.solids rho.solids))
alphaRhoUGas
{
    type            multiply;
    libs            ("libfieldFunctionObjects.so");
    fields          (alpha.gas rho.gas U.gas);
    result          alphaRhoU.gas;
    executeControl  timeStep;
    executeInterval 1;
    writeControl    none;
}
alphaRhoUSolids
{
    type            multiply;
    libs            ("libfieldFunctionObjects.so");
    fields          (alpha.solids rho.solids U.solids);
    result          alphaRhoU.solids;
    executeControl  timeStep;
    executeInterval 1;
    writeControl    none;
}
// Divergence of stress tensor [kg/m^2/s^2]
#includeFunc calcDivDevTauFn(executeControl=timeStep,executeInterval=1,phase=gas)
#includeFunc calcDivDevTauFn(executeControl=timeStep,executeInterval=1,phase=solids)
// Drag force [N]
#includeFunc phaseForces(executeControl=timeStep,executeInterval=1,phase=solids)
// Specie phase density [kg/m^3]
#includeFunc multiply(executeControl=timeStep,executeInterval=1,writeControl=none,fields=(alpha.solids rho.solids Fe2O3.solids))
#includeFunc multiply(executeControl=timeStep,executeInterval=1,writeControl=none,fields=(alpha.solids rho.solids FeO.solids))
#includeFunc multiply(executeControl=timeStep,executeInterval=1,writeControl=none,fields=(alpha.solids rho.solids inerts.solids))
#includeFunc multiply(executeControl=timeStep,executeInterval=1,writeControl=none,fields=(alpha.gas rho.gas CO.gas))
#includeFunc multiply(executeControl=timeStep,executeInterval=1,writeControl=none,fields=(alpha.gas rho.gas CO2.gas))
#includeFunc multiply(executeControl=timeStep,executeInterval=1,writeControl=none,fields=(alpha.gas rho.gas H2O.gas))
#includeFunc multiply(executeControl=timeStep,executeInterval=1,writeControl=none,fields=(alpha.gas rho.gas H2.gas))
#includeFunc multiply(executeControl=timeStep,executeInterval=1,writeControl=none,fields=(alpha.gas rho.gas CH4.gas))
// ---===========================================---

// Averaged phase densities [-]
#includeFunc fieldAverage(fields=(
    multiply(alpha.gas,rho.gas)
    multiply(alpha.solids,rho.solids)
    ))
favreVelocityAverage
{
    type            fieldAverage;
    libs            ("libfieldFunctionObjects.so");
    writeControl    writeTime;
    fields
    (
        alphaRhoU.gas
        {
            mean    yes;
        }
        alphaRhoU.solids
        {
            mean    yes;
        }
    );
}
favreVelocityGas
{
    type            divide;
    libs            ("libfieldFunctionObjects.so");
    fields          (alphaRhoU.gasMean multiply(alpha.gas,rho.gas)Mean);
    result          U.gasMean_favre;
    executeControl  writeTime;
    writeControl    writeTime;
}
favreVelocitySolids
{
    type            divide;
    libs            ("libfieldFunctionObjects.so");
    fields          (alphaRhoU.solidsMean multiply(alpha.solids,rho.solids)Mean);
    result          U.solidsMean_favre;
    executeControl  writeTime;
    writeControl    writeTime;
}
// Averaged volume fractions [-]
#includeFunc fieldAverage(fields=(alpha.gas alpha.solids))
// Averaged pressure [Pa]
#includeFunc fieldAverage(fields=(p),prime2Mean=yes)
// Averaged net reaction rates [mol/m^3/s] - needs to be converted to kg/m^3/s
#includeFunc fieldAverage(fields=(NRR_Abad_CH4 NRR_Abad_CO NRR_Abad_H2))
// Averaged drag force [N/m^3]
#includeFunc fieldAverage(fields=(dragForce.solids))
// // Solids (granular) pressure [Pa/m]
#includeFunc fieldAverage(fields=(p.solids))
// Stress terms (laminar and turbulent combined)
#includeFunc fieldAverage(fields=(divDevTau.gas))
#includeFunc fieldAverage(fields=(divDevTau.solids))

// Pressure-volume fraction fluctuation
#includeFunc grad(executeControl=timeStep,executeInterval=1,writeControl=none,field=p)
#includeFunc fieldAverage(fields=(grad(p)))
//      note: I believe, these should not be stated at t=0s
//      note: Also, only one phase is needed, other is equal to negative first
#includeFunc calcAlphaStrokeGradPStrokeFn(executeControl=timeStep,executeInterval=1,phase=gas,startTime=170) // NOTE: manually modify time on this and on the next line!
#includeFunc fieldAverage(fields=(alphaStrokeGradPStroke.gas),startTime=170)

// Averaged species' phase densities
#includeFunc fieldAverage(fields=(
    multiply(alpha.solids,rho.solids,Fe2O3.solids)
    multiply(alpha.solids,rho.solids,FeO.solids)
    multiply(alpha.solids,rho.solids,inerts.solids)
    ))
#includeFunc fieldAverage(fields=(
    multiply(alpha.gas,rho.gas,CO.gas)
    multiply(alpha.gas,rho.gas,CO2.gas)
    multiply(alpha.gas,rho.gas,H2O.gas)
    multiply(alpha.gas,rho.gas,H2.gas)
    multiply(alpha.gas,rho.gas,CH4.gas)
    ))
// Averaged mass fractions
#includeFunc fieldAverage(fields=(Fe2O3.solids FeO.solids inerts.solids))
#includeFunc fieldAverage(fields=(CO.gas CO2.gas H2O.gas H2.gas CH4.gas))

// Averaged effective viscosity [m^2/s]
#includeFunc fieldAverage(fields=(nut.solids))
// Averaged frictional viscosity [m^2/s]
#includeFunc fieldAverage(fields=(kineticTheory:nuFric.solids))

// Velocities
#includeFunc fieldAverage(fields=(U.gas U.solids),prime2Mean=yes)


// ************************************************************************* //