/*--------------------------------*- C++ -*----------------------------------*\
  =========                 |
  \\      /  F ield         | OpenFOAM: The Open Source CFD Toolbox
   \\    /   O peration     | Website:  https://openfoam.org
    \\  /    A nd           | Version:  dev
     \\/     M anipulation  |
\*---------------------------------------------------------------------------*/
FoamFile
{
    version     2.0;
    format      ascii;
    class       dictionary;
    location    "constant";
    object      momentumTransfer;
}
// * * * * * * * * * * * * * * * * * * * * * * * * * * * * * * * * * * * * * //

drag
{
    solids_dispersedIn_gas
    {
        type            GidaspowErgunWenYu;//GidaspowSmooth;
        residualAlpha   1e-7;
        residualRe      1e-7;
        swarmCorrection
        {
            type        none;
        }
    }
}

virtualMass {}

lift {}

wallLubrication {}

turbulentDispersion {}

// ************************************************************************* //