/*--------------------------------*- C++ -*----------------------------------*\
  =========                 |
  \\      /  F ield         | OpenFOAM: The Open Source CFD Toolbox
   \\    /   O peration     | Website:  https://openfoam.org
    \\  /    A nd           | Version:  dev
     \\/     M anipulation  |
\*---------------------------------------------------------------------------*/
FoamFile
{
    version         2;
    format          ascii;
    class           dictionary;
    location        "";
    object          caseDict;
}
// * * * * * * * * * * * * * * * * * * * * * * * * * * * * * * * * * * * * * //

// In this files all case parameters are set (see NOTE for exceptions).

// NOTE dependencies:
// Reads specie list and densities from physicalProperties.solids
// Reads specie list from physicalProperties.gas

// ------------=== Parameters to modify ===-------------

#include "$FOAM_CASE/caseParamsDict"

// ------------=== Physical constants ===-------------

// ------------=== Load data from other dictionaries ===-------------

// ------------=== Derived parameters ===-------------

domainVolume #calc "$L*$L*$L";

// Calulation of specie's mass fractions according to Abad et al. 2011
// For reduction with 
    // H2:  15% H2  + 20% H2O + 65% N2
    // CO:  15% CO  + 20% CO2 + 65% N2
    // CH4: 15% CH4 + 20% H2O + 65% N2
// For oxidation with 
    // O2:  21% O2  + 79% N2
Y_gas #codeStream
{
    codeInclude
    #{
        #include "calcFunctions.H"
    #};

    codeOptions
    #{
        -I$(FOAM_CASE)/../../../src/common/
    #};

    code
    #{
        const wordList species = dict.lookupScoped<wordList>("constant/physicalProperties.gas!species", true, false);
        const word gas = $<word>gas;
        List<scalar> mole_fractions(species.size(), 0.0);
        List<scalar> molar_weights(species.size(), 0.0);
        
        if ( gas == "H2" ) {
            mole_fractions[findIndex(species, "H2")]  = 0.15;
            mole_fractions[findIndex(species, "H2O")] = 0.20;
            mole_fractions[findIndex(species, "N2")]  = 0.65;
        } else if ( gas == "CO" ) {
            mole_fractions[findIndex(species, "CO")]  = 0.15;
            mole_fractions[findIndex(species, "CO2")] = 0.20;
            mole_fractions[findIndex(species, "N2")]  = 0.65;
        } else if ( gas == "CH4" ) {
            mole_fractions[findIndex(species, "CH4")] = 0.15;
            mole_fractions[findIndex(species, "H2O")] = 0.20;
            mole_fractions[findIndex(species, "N2")]  = 0.65;
        } else if ( gas == "O2" ) {
            mole_fractions[findIndex(species, "O2")]  = 0.21;
            mole_fractions[findIndex(species, "N2")]  = 0.79;
        } else {
            FatalErrorInFunction
            << "gas " << gas << " is not supported"
            << exit(FatalError);
        }

        forAll(species, i) {
            // ${${FOAM_CASE}/constant/physicalProperties.gas!CO2/specie/molWeight}
            molar_weights[i] = dict.lookupScoped<scalar>("constant/physicalProperties.gas!" + species[i] + "/specie/molWeight", true, false);
        }

        List<scalar> mass_fractions = moleFractionsToMassFractions(mole_fractions, molar_weights);
        os << mass_fractions;
    #};
};

INPUT_calcIlmeniteMassFractions_conversion $initialConversion;
    #include "$FOAM_CASE/../../../src/common/calcIlmeniteMassFractions"
    Y_solids $OUTPUT_calcIlmeniteMassFractions; // List of initial mass fractions of solid species
    #remove OUTPUT_calcIlmeniteMassFractions
#remove INPUT_calcIlmeniteMassFractions_conversion

INPUT_calcIlmeniteDensity_conversion $initialConversion;
    #include "$FOAM_CASE/../../../src/common/calcIlmeniteDensity"
    rho_solids $OUTPUT_calcIlmeniteDensity; // [kg/m^3] - average solids density
    #remove OUTPUT_calcIlmeniteDensity
#remove INPUT_calcIlmeniteDensity_conversion

alpha_solids #calc "$solidsMass / $domainVolume / $rho_solids"; // [-] - volume fraction of solids, if we initialize uniform volume fraction for the whole domain

// ************************************************************************* //
